#p hf/STO-3G scf(nodiis,conventional) extralink=l316 noraff iop(3/33=3) nosymm

Test

  0  1
C   -5.802911    1.070151   -0.283867
C   -5.268211   -0.174449    0.048633
C   -6.116611   -1.244649    0.332433
C   -7.499611   -1.070149    0.283833
C   -8.034311    0.174451   -0.048567
C   -7.185911    1.244651   -0.332467
H   -5.133883    1.914111   -0.507771
H   -4.177523   -0.312017    0.087047
H   -5.694979   -2.226235    0.594568
H   -8.168636   -1.914130    0.507664
H   -9.125000    0.312049   -0.086832
H   -7.607549    2.226215   -0.594675
